Input Parameters:
   integrator           = md
   nsteps               = 100000
   init-step            = 0
   cutoff-scheme        = Group
   ns_type              = Simple
   nstlist              = 10
   ndelta               = 2
   nstcomm              = 100
   comm-mode            = Angular
   nstlog               = 300
   nstxout              = 300
   nstvout              = 0
   nstfout              = 0
   nstcalcenergy        = 100
   nstenergy            = 300
   nstxtcout            = 0
   init-t               = 0
   delta-t              = 0.001
   xtcprec              = 1000
   fourierspacing       = 0.12
   nkx                  = 0
   nky                  = 0
   nkz                  = 0
   pme-order            = 4
   ewald-rtol           = 1e-05
   ewald-geometry       = 0
   epsilon-surface      = 0
   optimize-fft         = TRUE
   ePBC                 = no
   bPeriodicMols        = FALSE
   bContinuation        = FALSE
   bShakeSOR            = FALSE
   etc                  = V-rescale
   bPrintNHChains       = FALSE
   nsttcouple           = 10
   epc                  = No
   epctype              = Isotropic
   nstpcouple           = -1
   tau-p                = 1
   ref-p (3x3):
      ref-p[    0]={ 0.00000e+00,  0.00000e+00,  0.00000e+00}
      ref-p[    1]={ 0.00000e+00,  0.00000e+00,  0.00000e+00}
      ref-p[    2]={ 0.00000e+00,  0.00000e+00,  0.00000e+00}
   compress (3x3):
      compress[    0]={ 0.00000e+00,  0.00000e+00,  0.00000e+00}
      compress[    1]={ 0.00000e+00,  0.00000e+00,  0.00000e+00}
      compress[    2]={ 0.00000e+00,  0.00000e+00,  0.00000e+00}
   refcoord-scaling     = No
   posres-com (3):
      posres-com[0]= 0.00000e+00
      posres-com[1]= 0.00000e+00
      posres-com[2]= 0.00000e+00
   posres-comB (3):
      posres-comB[0]= 0.00000e+00
      posres-comB[1]= 0.00000e+00
      posres-comB[2]= 0.00000e+00
   verlet-buffer-drift  = 0.005
   rlist                = 0
   rlistlong            = 0
   nstcalclr            = 0
   rtpi                 = 0.05
   coulombtype          = Cut-off
   coulomb-modifier     = None
   rcoulomb-switch      = 0
   rcoulomb             = 0
   vdwtype              = Cut-off
   vdw-modifier         = None
   rvdw-switch          = 0
   rvdw                 = 0
   epsilon-r            = 1
   epsilon-rf           = inf
   tabext               = 1
   implicit-solvent     = No
   gb-algorithm         = Still
   gb-epsilon-solvent   = 80
   nstgbradii           = 1
   rgbradii             = 1
   gb-saltconc          = 0
   gb-obc-alpha         = 1
   gb-obc-beta          = 0.8
   gb-obc-gamma         = 4.85
   gb-dielectric-offset = 0.009
   sa-algorithm         = Ace-approximation
   sa-surface-tension   = 2.05016
   DispCorr             = No
   bSimTemp             = FALSE
   free-energy          = no
   nwall                = 0
   wall-type            = 9-3
   wall-atomtype[0]     = -1
   wall-atomtype[1]     = -1
   wall-density[0]      = 0
   wall-density[1]      = 0
   wall-ewald-zfac      = 3
   pull                 = no
   rotation             = FALSE
   disre                = Simple
   disre-weighting      = Conservative
   disre-mixed          = FALSE
   dr-fc                = 1
   dr-tau               = 0
   nstdisreout          = 100
   orires-fc            = 0
   orires-tau           = 0
   nstorireout          = 100
   dihre-fc             = 0
   em-stepsize          = 0.01
   em-tol               = 10
   niter                = 20
   fc-stepsize          = 0
   nstcgsteep           = 1000
   nbfgscorr            = 10
   ConstAlg             = Lincs
   shake-tol            = 0.0001
   lincs-order          = 4
   lincs-warnangle      = 30
   lincs-iter           = 1
   bd-fric              = 0
   ld-seed              = 1993
   cos-accel            = 0
   deform (3x3):
      deform[    0]={ 0.00000e+00,  0.00000e+00,  0.00000e+00}
      deform[    1]={ 0.00000e+00,  0.00000e+00,  0.00000e+00}
      deform[    2]={ 0.00000e+00,  0.00000e+00,  0.00000e+00}
   adress               = FALSE
   userint1             = 0
   userint2             = 0
   userint3             = 0
   userint4             = 0
   userreal1            = 0
   userreal2            = 0
   userreal3            = 0
   userreal4            = 0
grpopts:
   nrdf:          45
   ref-t:         300
   tau-t:         0.1
anneal:          No
ann-npoints:           0
   acc:	           0           0           0
   nfreeze:           N           N           N
   energygrp-flags[  0]: 0
   efield-x:
      n = 0
   efield-xt:
      n = 0
   efield-y:
      n = 0
   efield-yt:
      n = 0
   efield-z:
      n = 0
   efield-zt:
      n = 0
   bQMMM                = FALSE
   QMconstraints        = 0
   QMMMscheme           = 0
   scalefactor          = 1
qm-opts:
   ngQM                 = 0

Using accelerated all-vs-all kernels.

Using 6 MPI processes

Detecting CPU-specific acceleration.
Present hardware specification:
Vendor: GenuineIntel
Brand:  Intel(R) Xeon(R) CPU E5-2695 v2 @ 2.40GHz
Family:  6  Model: 62  Stepping:  4
Features: aes apic avx clfsh cmov cx8 cx16 f16c htt lahf_lm mmx msr nonstop_tsc pcid pclmuldq pdcm pdpe1gb popcnt pse rdrnd rdtscp sse2 sse3 sse4.1 sse4.2 ssse3 tdt x2apic
Acceleration most likely to fit this hardware: AVX_256
Acceleration selected at GROMACS compile time: AVX_256

Your simulation settings would have triggered the efficient all-vs-all
kernels in GROMACS 4.5, but these have not been implemented in GROMACS
4.6. Also, we can't use the accelerated SIMD kernels here because
of an unfixed bug. The reference C kernels are correct, though, so
we are proceeding by disabling all CPU architecture-specific
(e.g. SSE2/SSE4/AVX) routines. If performance is important, please
use GROMACS 4.5.7 or try cutoff-scheme = Verlet.

Table routines are used for coulomb: FALSE
Table routines are used for vdw:     FALSE
Cut-off's:   NS: 1e+18   Coulomb: 1e+18   LJ: 1e+18
System total charge: 0.000
Generated table with 500 data points for 1-4 COUL.
Tabscale = 500 points/nm
Generated table with 500 data points for 1-4 LJ6.
Tabscale = 500 points/nm
Generated table with 500 data points for 1-4 LJ12.
Tabscale = 500 points/nm
Potential shift: LJ r^-12: 0.000 r^-6 0.000, Coulomb 0.000

Non-default thread affinity set probably by the OpenMP library,
disabling internal thread affinity
Center of mass motion removal mode is Angular
We have the following groups for center of mass motion removal:
  0:  MOI

There are: 17 Atoms
splitting topology...
There are 17 charge group borders and 17 shake borders.
There are 17 total borders
Division over nodes in atoms:
       3       3       3       3       3       2
CPU=  0, lastcg=    2, targetcg=   11, myshift=    3
CPU=  1, lastcg=    5, targetcg=   14, myshift=    3
CPU=  2, lastcg=    8, targetcg=    0, myshift=    4
CPU=  3, lastcg=   11, targetcg=    3, myshift=    3
CPU=  4, lastcg=   14, targetcg=    6, myshift=    3
CPU=  5, lastcg=   16, targetcg=    8, myshift=    3
pd->shift =   5, pd->bshift=  0
Division of bonded forces over processors
CPU              0     1     2     3     4     5
BONDS           10     6     0     0     0     0
ANGLES          24     6     0     0     0     0
RBDIHS          36     0     0     0     0     0
LJ14            12     8    10     6     0     0
DIHRES           2     0     0     0     0     0
Workload division
nnodes:           6
pd->shift:        5
pd->bshift:       0
Nodeid   atom0   #atom     cg0       #cg
     0       0       3       0         3
     1       3       3       3         3
     2       6       3       6         3
     3       9       3       9         3
     4      12       3      12         3
     5      15       2      15         2

Group MOI with mass  7.21460e+01, Ekrot  1.72626e+00 Det(I) =  9.36861e-02
  COM:      0.00006       0.00000      -0.00065
  P:       -0.00000       0.00001       0.00001
  V:       -0.00000       0.00000       0.00000
  J:        1.69541      -0.41232       1.79516
  w:        0.96841      -0.36163       0.92558
Inertia tensor (3x3):
   Inertia tensor[    0]={ 1.06084e+00,  2.45093e-01, -4.68882e-01}
   Inertia tensor[    1]={ 2.45093e-01,  5.73492e-01, -4.74534e-01}
   Inertia tensor[    2]={-4.68882e-01, -4.74534e-01,  6.37564e-01}
Initial temperature: 306.378 K

Started mdrun on node 0 Thu Jan  1 01:00:00 1970
           Step           Time         Lambda
              0        0.00000        0.00000

   Energies (kJ/mol)
           Bond          Angle Ryckaert-Bell.          LJ-14     Coulomb-14
    4.56683e+01    1.80728e+02    2.55791e+01    1.36262e+01    2.41566e+00
        LJ (SR)   Coulomb (SR)     Dih. Rest.      Potential    Kinetic En.
    1.57183e+00    1.86935e+00    0.00000e+00    2.71459e+02    7.20459e+01
    3.43505e+02    3.43505e+02    3.85114e+02    0.00000e+00

	<====  A V E R A G E S  ====>

	Statistics over 100001 steps using 1001 frames

   Energies (kJ/mol)
           Bond          Angle Ryckaert-Bell.          LJ-14     Coulomb-14
    2.11254e+01    3.80921e+01    1.35791e+01    5.54381e+00    1.19018e+00
        LJ (SR)   Coulomb (SR)     Dih. Rest.      Potential    Kinetic En.
    1.57845e+00    2.44791e+00    3.13584e+00    8.66927e+01    5.65834e+01
   Total Energy  Conserved En.    Temperature Pressure (bar)
    1.43276e+02    3.64314e+02    3.02461e+02    0.00000e+00

   Total Virial (kJ/mol)
    1.88496e+01    2.03743e+00   -8.40196e-01
    2.03742e+00    1.75938e+01    2.07287e+00
   -8.40195e-01    2.07287e+00    1.50869e+01

   Pressure (bar)
    0.00000e+00    0.00000e+00    0.00000e+00
    0.00000e+00    0.00000e+00    0.00000e+00
    0.00000e+00    0.00000e+00    0.00000e+00
